/*--------------------------------*- C++ -*----------------------------------*\
  =========                 |
  \\      /  F ield         | OpenFOAM: The Open Source CFD Toolbox
   \\    /   O peration     | Website:  https://openfoam.org
    \\  /    A nd           | Version:  13
     \\/     M anipulation  |
\*---------------------------------------------------------------------------*/
FoamFile
{
    format          ascii;
    class           dictionary;
    location        "system";
    object          controlDict;
}
// * * * * * * * * * * * * * * * * * * * * * * * * * * * * * * * * * * * * * //

application     foamRun;

solver          incompressibleFluid;

startFrom       startTime;

startTime       0;

stopAt          endTime;

endTime         50;

deltaT          0.01;

writeControl    runTime;       

writeInterval   1;              

purgeWrite      0;              

writeFormat     ascii;

writePresision  6;

timeFormat      general;

timePrecision   6;

runTimeModifiable   true;

// * * * * * * * * * * * * * * * * * * * * * * * * * * * * * * * * * * * * * //

functions
{
    minmaxScalarDomain
    {
        type            volFieldValue;

        libs            ("libfieldFunctionObjects.so");

        log             true;

        writeControl    runTime;

        select          all;

        operation       none

        fields
        (
            p
        );
    }

        minmaxVectorDomain
    {
        type            volFieldValue;

        libs            ("libfieldFunctionObjects.so");

        log             true;

        writeControl    runTime;

        select          all;

        operation       none

        fields
        (
            U            
        );
    }

    minVelocity
    {
        $minmaxScalarDomain;
        
        operation       minMag;
    }

    maxVelocity
    {
        $minmaxScalarDomain;
        
        operation       maxMag;
    }

    minPressure
    {
        $minmaxVectorDomain;

        operation       min;
    }

    maxPressure
    {
        $minmaxScalarDomain;
        operation       max;
    }
}

// ************************************************************************* //

